CB61365582.MOL
  ChemDraw03302013332D

 16 17  0  0  0  0  0  0  0  0999 V2000
    1.2083   -1.1495    0.0000 S   0  0  0  0  0  0  0  0  0  0  0  0
    1.1220   -0.3290    0.0000 N   0  0  0  0  0  0  0  0  0  0  0  0
    1.8757    0.0066    0.0000 C   0  0  0  0  0  0  0  0  0  0  0  0
    2.4277   -0.6065    0.0000 C   0  0  0  0  0  0  0  0  0  0  0  0
    2.0152   -1.3210    0.0000 C   0  0  0  0  0  0  0  0  0  0  0  0
    2.0472    0.8135    0.0000 O   0  0  0  0  0  0  0  0  0  0  0  0
    0.4076    0.0835    0.0000 C   0  0  0  0  0  0  0  0  0  0  0  0
   -0.3069   -0.3290    0.0000 C   0  0  0  0  0  0  0  0  0  0  0  0
   -1.0214    0.0835    0.0000 C   0  0  0  0  0  0  0  0  0  0  0  0
   -1.0214    0.9085    0.0000 C   0  0  0  0  0  0  0  0  0  0  0  0
   -0.3069    1.3210    0.0000 C   0  0  0  0  0  0  0  0  0  0  0  0
    0.4076    0.9085    0.0000 C   0  0  0  0  0  0  0  0  0  0  0  0
   -1.7358   -0.3290    0.0000 C   0  0  0  0  0  0  0  0  0  0  0  0
   -1.2865   -1.0209    0.0000 F   0  0  0  0  0  0  0  0  0  0  0  0
   -2.4277   -0.7783    0.0000 F   0  0  0  0  0  0  0  0  0  0  0  0
   -2.1852    0.3629    0.0000 F   0  0  0  0  0  0  0  0  0  0  0  0
  1  2  1  0      
  2  3  1  0      
  3  4  1  0      
  4  5  2  0      
  1  5  1  0      
  3  6  2  0      
  7  8  1  0      
  8  9  2  0      
  9 10  1  0      
 10 11  2  0      
 11 12  1  0      
  7 12  2  0      
 13 14  1  0      
 13 15  1  0      
 13 16  1  0      
  9 13  1  0      
  2  7  1  0      
M  END
